Version 4
SHEET 1 880 680
WIRE 256 144 192 144
WIRE 384 144 336 144
WIRE 512 144 448 144
WIRE -64 160 -160 160
WIRE 64 160 0 160
WIRE 192 160 192 144
WIRE 192 160 144 160
WIRE 192 192 192 160
WIRE 512 192 512 144
WIRE -160 208 -160 160
FLAG 512 192 0
FLAG -160 208 0
FLAG 192 272 0
SYMBOL CDZV3_6B -32 160 R0
SYMATTR InstName U1
SYMBOL CDZV3_6B 416 144 R0
SYMATTR InstName U2
SYMBOL voltage 192 176 R0
SYMATTR InstName V1
SYMATTR Value 5
SYMBOL res 160 144 R90
WINDOW 0 0 56 VBottom 2
WINDOW 3 32 56 VTop 2
SYMATTR InstName R1
SYMATTR Value 100k
SYMBOL res 352 128 R90
WINDOW 0 0 56 VBottom 2
WINDOW 3 32 56 VTop 2
SYMATTR InstName R2
SYMATTR Value 100k
TEXT -116 296 Left 2 !.tran 1
